!-Generator IDFEditor 1.51
!-Option SortedOrder

!-NOTE: All comments with '!-' are ignored by the IDFEditor and are generated automatically.
!-      Use '!' comments if they need to be retained when using the IDFEditor.


!-   ===========  ALL OBJECTS IN CLASS: VERSION ===========

Version,
    9.4;                     !- Version Identifier


!-   ===========  ALL OBJECTS IN CLASS: SIMULATIONCONTROL ===========

SimulationControl,
    Yes,                     !- Do Zone Sizing Calculation
    Yes,                     !- Do System Sizing Calculation
    Yes,                     !- Do Plant Sizing Calculation
    No,                      !- Run Simulation for Sizing Periods
    Yes,                     !- Run Simulation for Weather File Run Periods
    ,                        !- Do HVAC Sizing Simulation for Sizing Periods
    ;                        !- Maximum Number of HVAC Sizing Simulation Passes


!-   ===========  ALL OBJECTS IN CLASS: BUILDING ===========

Building,
    Building,                !- Name
    37,                      !- North Axis {deg}
    Urban,                   !- Terrain
    0.04,                    !- Loads Convergence Tolerance Value {W}
    0.4,                     !- Temperature Convergence Tolerance Value {deltaC}
    FullExterior,            !- Solar Distribution
    25,                      !- Maximum Number of Warmup Days
    6;                       !- Minimum Number of Warmup Days


!-   ===========  ALL OBJECTS IN CLASS: SHADOWCALCULATION ===========

ShadowCalculation,
    PolygonClipping,         !- Shading Calculation Method
    Periodic,                !- Shading Calculation Update Frequency Method
    20,                      !- Shading Calculation Update Frequency
    15000,                   !- Maximum Figures in Shadow Overlap Calculations
    SutherlandHodgman,       !- Polygon Clipping Algorithm
    ,                        !- Pixel Counting Resolution
    SimpleSkyDiffuseModeling;!- Sky Diffuse Modeling Algorithm


!-   ===========  ALL OBJECTS IN CLASS: SURFACECONVECTIONALGORITHM:INSIDE ===========

SurfaceConvectionAlgorithm:Inside,
    TARP;                    !- Algorithm


!-   ===========  ALL OBJECTS IN CLASS: SURFACECONVECTIONALGORITHM:OUTSIDE ===========

SurfaceConvectionAlgorithm:Outside,
    DOE-2;                   !- Algorithm


!-   ===========  ALL OBJECTS IN CLASS: HEATBALANCEALGORITHM ===========

HeatBalanceAlgorithm,
    ConductionTransferFunction,  !- Algorithm
    2000,                    !- Surface Temperature Upper Limit {C}
    0.00000001,              !- Minimum Surface Convection Heat Transfer Coefficient Value {W/m2-K}
    1000;                    !- Maximum Surface Convection Heat Transfer Coefficient Value {W/m2-K}


!-   ===========  ALL OBJECTS IN CLASS: ZONECAPACITANCEMULTIPLIER:RESEARCHSPECIAL ===========

ZoneCapacitanceMultiplier:ResearchSpecial,
    All,                     !- Name
    ,                        !- Zone or ZoneList Name
    1,                       !- Temperature Capacity Multiplier
    1.0,                     !- Humidity Capacity Multiplier
    1.0,                     !- Carbon Dioxide Capacity Multiplier
    1.0;                     !- Generic Contaminant Capacity Multiplier


!-   ===========  ALL OBJECTS IN CLASS: TIMESTEP ===========

Timestep,
    6;                       !- Number of Timesteps per Hour


!-   ===========  ALL OBJECTS IN CLASS: CONVERGENCELIMITS ===========

ConvergenceLimits,
    1,                       !- Minimum System Timestep {minutes}
    25;                      !- Maximum HVAC Iterations


!-   ===========  ALL OBJECTS IN CLASS: SITE:LOCATION ===========

! Hourly weather file: C:\Users\fbouny\Documents\NR3\BC-2\EPW\FRA_NANTERRE_IWEC_2023.epw
Site:Location,
    NR3 (01-01:31-12)  (01-01:31-12),  !- Name
    48.9,                    !- Latitude {deg}
    2.21,                    !- Longitude {deg}
    1,                       !- Time Zone {hr}
    50;                      !- Elevation {m}


!-   ===========  ALL OBJECTS IN CLASS: SIZINGPERIOD:DESIGNDAY ===========

SizingPeriod:DesignDay,
    Summer Design Day in NR3 (01-01:31-12) Juin,  !- Name
    6,                       !- Month
    15,                      !- Day of Month
    SummerDesignDay,         !- Day Type
    31.4,                    !- Maximum Dry-Bulb Temperature {C}
    13.1,                    !- Daily Dry-Bulb Temperature Range {deltaC}
    ,                        !- Dry-Bulb Temperature Range Modifier Type
    ,                        !- Dry-Bulb Temperature Range Modifier Day Schedule Name
    WetBulb,                 !- Humidity Condition Type
    20.9,                    !- Wetbulb or DewPoint at Maximum Dry-Bulb {C}
    ,                        !- Humidity Condition Day Schedule Name
    ,                        !- Humidity Ratio at Maximum Dry-Bulb {kgWater/kgDryAir}
    ,                        !- Enthalpy at Maximum Dry-Bulb {J/kg}
    ,                        !- Daily Wet-Bulb Temperature Range {deltaC}
    100725.8,                !- Barometric Pressure {Pa}
    0,                       !- Wind Speed {m/s}
    0,                       !- Wind Direction {deg}
    No,                      !- Rain Indicator
    No,                      !- Snow Indicator
    Yes,                     !- Daylight Saving Time Indicator
    ASHRAEClearSky,          !- Solar Model Indicator
    ,                        !- Beam Solar Day Schedule Name
    ,                        !- Diffuse Solar Day Schedule Name
    ,                        !- ASHRAE Clear Sky Optical Depth for Beam Irradiance (taub) {dimensionless}
    ,                        !- ASHRAE Clear Sky Optical Depth for Diffuse Irradiance (taud) {dimensionless}
    0.98;                    !- Sky Clearness

SizingPeriod:DesignDay,
    Summer Design Day in NR3 (01-01:31-12) Juil,  !- Name
    7,                       !- Month
    15,                      !- Day of Month
    SummerDesignDay,         !- Day Type
    33.8,                    !- Maximum Dry-Bulb Temperature {C}
    13.6,                    !- Daily Dry-Bulb Temperature Range {deltaC}
    ,                        !- Dry-Bulb Temperature Range Modifier Type
    ,                        !- Dry-Bulb Temperature Range Modifier Day Schedule Name
    WetBulb,                 !- Humidity Condition Type
    20.9,                    !- Wetbulb or DewPoint at Maximum Dry-Bulb {C}
    ,                        !- Humidity Condition Day Schedule Name
    ,                        !- Humidity Ratio at Maximum Dry-Bulb {kgWater/kgDryAir}
    ,                        !- Enthalpy at Maximum Dry-Bulb {J/kg}
    ,                        !- Daily Wet-Bulb Temperature Range {deltaC}
    100725.8,                !- Barometric Pressure {Pa}
    0,                       !- Wind Speed {m/s}
    0,                       !- Wind Direction {deg}
    No,                      !- Rain Indicator
    No,                      !- Snow Indicator
    Yes,                     !- Daylight Saving Time Indicator
    ASHRAEClearSky,          !- Solar Model Indicator
    ,                        !- Beam Solar Day Schedule Name
    ,                        !- Diffuse Solar Day Schedule Name
    ,                        !- ASHRAE Clear Sky Optical Depth for Beam Irradiance (taub) {dimensionless}
    ,                        !- ASHRAE Clear Sky Optical Depth for Diffuse Irradiance (taud) {dimensionless}
    0.98;                    !- Sky Clearness

SizingPeriod:DesignDay,
    Summer Design Day in NR3 (01-01:31-12) Aoû,  !- Name
    8,                       !- Month
    15,                      !- Day of Month
    SummerDesignDay,         !- Day Type
    35.9,                    !- Maximum Dry-Bulb Temperature {C}
    14.2,                    !- Daily Dry-Bulb Temperature Range {deltaC}
    ,                        !- Dry-Bulb Temperature Range Modifier Type
    ,                        !- Dry-Bulb Temperature Range Modifier Day Schedule Name
    WetBulb,                 !- Humidity Condition Type
    21.6,                    !- Wetbulb or DewPoint at Maximum Dry-Bulb {C}
    ,                        !- Humidity Condition Day Schedule Name
    ,                        !- Humidity Ratio at Maximum Dry-Bulb {kgWater/kgDryAir}
    ,                        !- Enthalpy at Maximum Dry-Bulb {J/kg}
    ,                        !- Daily Wet-Bulb Temperature Range {deltaC}
    100725.8,                !- Barometric Pressure {Pa}
    0,                       !- Wind Speed {m/s}
    0,                       !- Wind Direction {deg}
    No,                      !- Rain Indicator
    No,                      !- Snow Indicator
    Yes,                     !- Daylight Saving Time Indicator
    ASHRAEClearSky,          !- Solar Model Indicator
    ,                        !- Beam Solar Day Schedule Name
    ,                        !- Diffuse Solar Day Schedule Name
    ,                        !- ASHRAE Clear Sky Optical Depth for Beam Irradiance (taub) {dimensionless}
    ,                        !- ASHRAE Clear Sky Optical Depth for Diffuse Irradiance (taud) {dimensionless}
    0.98;                    !- Sky Clearness

SizingPeriod:DesignDay,
    Summer Design Day in NR3 (01-01:31-12) Sep,  !- Name
    9,                       !- Month
    15,                      !- Day of Month
    SummerDesignDay,         !- Day Type
    28.8,                    !- Maximum Dry-Bulb Temperature {C}
    12.4,                    !- Daily Dry-Bulb Temperature Range {deltaC}
    ,                        !- Dry-Bulb Temperature Range Modifier Type
    ,                        !- Dry-Bulb Temperature Range Modifier Day Schedule Name
    WetBulb,                 !- Humidity Condition Type
    19.1,                    !- Wetbulb or DewPoint at Maximum Dry-Bulb {C}
    ,                        !- Humidity Condition Day Schedule Name
    ,                        !- Humidity Ratio at Maximum Dry-Bulb {kgWater/kgDryAir}
    ,                        !- Enthalpy at Maximum Dry-Bulb {J/kg}
    ,                        !- Daily Wet-Bulb Temperature Range {deltaC}
    100725.8,                !- Barometric Pressure {Pa}
    0,                       !- Wind Speed {m/s}
    0,                       !- Wind Direction {deg}
    No,                      !- Rain Indicator
    No,                      !- Snow Indicator
    Yes,                     !- Daylight Saving Time Indicator
    ASHRAEClearSky,          !- Solar Model Indicator
    ,                        !- Beam Solar Day Schedule Name
    ,                        !- Diffuse Solar Day Schedule Name
    ,                        !- ASHRAE Clear Sky Optical Depth for Beam Irradiance (taub) {dimensionless}
    ,                        !- ASHRAE Clear Sky Optical Depth for Diffuse Irradiance (taud) {dimensionless}
    0.98;                    !- Sky Clearness

SizingPeriod:DesignDay,
    Winter Design Day in NR3 (01-01:31-12),  !- Name
    1,                       !- Month
    15,                      !- Day of Month
    WinterDesignDay,         !- Day Type
    -5.4,                    !- Maximum Dry-Bulb Temperature {C}
    0,                       !- Daily Dry-Bulb Temperature Range {deltaC}
    ,                        !- Dry-Bulb Temperature Range Modifier Type
    ,                        !- Dry-Bulb Temperature Range Modifier Day Schedule Name
    WetBulb,                 !- Humidity Condition Type
    -5.4,                    !- Wetbulb or DewPoint at Maximum Dry-Bulb {C}
    ,                        !- Humidity Condition Day Schedule Name
    ,                        !- Humidity Ratio at Maximum Dry-Bulb {kgWater/kgDryAir}
    ,                        !- Enthalpy at Maximum Dry-Bulb {J/kg}
    ,                        !- Daily Wet-Bulb Temperature Range {deltaC}
    100725.8,                !- Barometric Pressure {Pa}
    2.8,                     !- Wind Speed {m/s}
    60,                      !- Wind Direction {deg}
    No,                      !- Rain Indicator
    No,                      !- Snow Indicator
    No,                      !- Daylight Saving Time Indicator
    ,                        !- Solar Model Indicator
    ,                        !- Beam Solar Day Schedule Name
    ,                        !- Diffuse Solar Day Schedule Name
    ,                        !- ASHRAE Clear Sky Optical Depth for Beam Irradiance (taub) {dimensionless}
    ,                        !- ASHRAE Clear Sky Optical Depth for Diffuse Irradiance (taud) {dimensionless}
    0;                       !- Sky Clearness


!-   ===========  ALL OBJECTS IN CLASS: RUNPERIOD ===========

RunPeriod,
    NR3 (01-01:31-12),       !- Name
    1,                       !- Begin Month
    1,                       !- Begin Day of Month
    2023,                    !- Begin Year
    12,                      !- End Month
    31,                      !- End Day of Month
    2023,                    !- End Year
    ,                        !- Day of Week for Start Day
    No,                      !- Use Weather File Holidays and Special Days
    No,                      !- Use Weather File Daylight Saving Period
    No,                      !- Apply Weekend Holiday Rule
    No,                      !- Use Weather File Rain Indicators
    No,                      !- Use Weather File Snow Indicators
    No;                      !- Treat Weather as Actual


!-   ===========  ALL OBJECTS IN CLASS: RUNPERIODCONTROL:SPECIALDAYS ===========

RunPeriodControl:SpecialDays,
    Veille de Noël,         !- Name
    25 Dec,                  !- Start Date
    7,                       !- Duration {days}
    Holiday;                 !- Special Day Type

RunPeriodControl:SpecialDays,
    Fête du travail,        !- Name
    1 May,                   !- Start Date
    1,                       !- Duration {days}
    Holiday;                 !- Special Day Type

RunPeriodControl:SpecialDays,
    Vacances d'été,        !- Name
    31 July,                 !- Start Date
    16,                      !- Duration {days}
    Holiday;                 !- Special Day Type

RunPeriodControl:SpecialDays,
    Jour de l'an,            !- Name
    1 January,               !- Start Date
    1,                       !- Duration {days}
    Holiday;                 !- Special Day Type

RunPeriodControl:SpecialDays,
    Lundi de Pâques,        !- Name
    10 April,                !- Start Date
    1,                       !- Duration {days}
    Holiday;                 !- Special Day Type

RunPeriodControl:SpecialDays,
    Fête de la Victoire,    !- Name
    8 May,                   !- Start Date
    1,                       !- Duration {days}
    Holiday;                 !- Special Day Type

RunPeriodControl:SpecialDays,
    Ascension,               !- Name
    18 may,                  !- Start Date
    2,                       !- Duration {days}
    Holiday;                 !- Special Day Type

RunPeriodControl:SpecialDays,
    Lundi de pentecôte,     !- Name
    29 may,                  !- Start Date
    1,                       !- Duration {days}
    Holiday;                 !- Special Day Type

RunPeriodControl:SpecialDays,
    Fête nationale (Quatorze juillet),  !- Name
    14 July,                 !- Start Date
    1,                       !- Duration {days}
    Holiday;                 !- Special Day Type

RunPeriodControl:SpecialDays,
    Toussaint,               !- Name
    1 November,              !- Start Date
    1,                       !- Duration {days}
    Holiday;                 !- Special Day Type

RunPeriodControl:SpecialDays,
    Armistice 1918,          !- Name
    11 November,             !- Start Date
    1,                       !- Duration {days}
    Holiday;                 !- Special Day Type


!-   ===========  ALL OBJECTS IN CLASS: RUNPERIODCONTROL:DAYLIGHTSAVINGTIME ===========

RunPeriodControl:DaylightSavingTime,
    March 26,                !- Start Date
    October 28;              !- End Date


!-   ===========  ALL OBJECTS IN CLASS: SITE:HEIGHTVARIATION ===========

Site:HeightVariation,
    0.28,                    !- Wind Speed Profile Exponent
    370,                     !- Wind Speed Profile Boundary Layer Thickness {m}
    0.0065;                  !- Air Temperature Gradient Coefficient {K/m}


!-   ===========  ALL OBJECTS IN CLASS: SITE:GROUNDTEMPERATURE:BUILDINGSURFACE ===========

Site:GroundTemperature:BuildingSurface,
    18,                      !- January Ground Temperature {C}
    18,                      !- February Ground Temperature {C}
    18,                      !- March Ground Temperature {C}
    18,                      !- April Ground Temperature {C}
    18,                      !- May Ground Temperature {C}
    18,                      !- June Ground Temperature {C}
    18,                      !- July Ground Temperature {C}
    18,                      !- August Ground Temperature {C}
    18,                      !- September Ground Temperature {C}
    18,                      !- October Ground Temperature {C}
    18,                      !- November Ground Temperature {C}
    18;                      !- December Ground Temperature {C}


!-   ===========  ALL OBJECTS IN CLASS: SITE:GROUNDTEMPERATURE:FCFACTORMETHOD ===========

Site:GroundTemperature:FCfactorMethod,
    5.23,                    !- January Ground Temperature {C}
    4.57,                    !- February Ground Temperature {C}
    5.75,                    !- March Ground Temperature {C}
    7.60,                    !- April Ground Temperature {C}
    12.46,                   !- May Ground Temperature {C}
    16.20,                   !- June Ground Temperature {C}
    18.72,                   !- July Ground Temperature {C}
    19.49,                   !- August Ground Temperature {C}
    18.18,                   !- September Ground Temperature {C}
    15.28,                   !- October Ground Temperature {C}
    11.39,                   !- November Ground Temperature {C}
    7.79;                    !- December Ground Temperature {C}


!-   ===========  ALL OBJECTS IN CLASS: SITE:GROUNDTEMPERATURE:SHALLOW ===========

Site:GroundTemperature:Shallow,
    14,                      !- January Surface Ground Temperature {C}
    14,                      !- February Surface Ground Temperature {C}
    14,                      !- March Surface Ground Temperature {C}
    14,                      !- April Surface Ground Temperature {C}
    14,                      !- May Surface Ground Temperature {C}
    14,                      !- June Surface Ground Temperature {C}
    14,                      !- July Surface Ground Temperature {C}
    14,                      !- August Surface Ground Temperature {C}
    14,                      !- September Surface Ground Temperature {C}
    14,                      !- October Surface Ground Temperature {C}
    14,                      !- November Surface Ground Temperature {C}
    14;                      !- December Surface Ground Temperature {C}


!-   ===========  ALL OBJECTS IN CLASS: SITE:GROUNDTEMPERATURE:DEEP ===========

Site:GroundTemperature:Deep,
    14,                      !- January Deep Ground Temperature {C}
    14,                      !- February Deep Ground Temperature {C}
    14,                      !- March Deep Ground Temperature {C}
    14,                      !- April Deep Ground Temperature {C}
    14,                      !- May Deep Ground Temperature {C}
    14,                      !- June Deep Ground Temperature {C}
    14,                      !- July Deep Ground Temperature {C}
    14,                      !- August Deep Ground Temperature {C}
    14,                      !- September Deep Ground Temperature {C}
    14,                      !- October Deep Ground Temperature {C}
    14,                      !- November Deep Ground Temperature {C}
    14;                      !- December Deep Ground Temperature {C}


!-   ===========  ALL OBJECTS IN CLASS: SITE:GROUNDREFLECTANCE ===========

Site:GroundReflectance,
    0.2,                     !- January Ground Reflectance {dimensionless}
    0.2,                     !- February Ground Reflectance {dimensionless}
    0.2,                     !- March Ground Reflectance {dimensionless}
    0.2,                     !- April Ground Reflectance {dimensionless}
    0.2,                     !- May Ground Reflectance {dimensionless}
    0.2,                     !- June Ground Reflectance {dimensionless}
    0.2,                     !- July Ground Reflectance {dimensionless}
    0.2,                     !- August Ground Reflectance {dimensionless}
    0.2,                     !- September Ground Reflectance {dimensionless}
    0.2,                     !- October Ground Reflectance {dimensionless}
    0.2,                     !- November Ground Reflectance {dimensionless}
    0.2;                     !- December Ground Reflectance {dimensionless}


!-   ===========  ALL OBJECTS IN CLASS: SITE:GROUNDREFLECTANCE:SNOWMODIFIER ===========

Site:GroundReflectance:SnowModifier,
    2.0,                     !- Ground Reflected Solar Modifier
    2.0;                     !- Daylighting Ground Reflected Solar Modifier


!-   ===========  ALL OBJECTS IN CLASS: SITE:WATERMAINSTEMPERATURE ===========

Site:WaterMainsTemperature,
    Correlation,             !- Calculation Method
    ,                        !- Temperature Schedule Name
    11.6,                    !- Annual Average Outdoor Air Temperature {C}
    20;                      !- Maximum Difference In Monthly Average Outdoor Air Temperatures {deltaC}


!-   ===========  ALL OBJECTS IN CLASS: SCHEDULETYPELIMITS ===========

! Not limited
ScheduleTypeLimits,
    Any Number;              !- Name

ScheduleTypeLimits,
    Fraction,                !- Name
    0.0,                     !- Lower Limit Value
    1.0,                     !- Upper Limit Value
    CONTINUOUS;              !- Numeric Type

ScheduleTypeLimits,
    Temperature,             !- Name
    -60,                     !- Lower Limit Value
    200,                     !- Upper Limit Value
    CONTINUOUS;              !- Numeric Type

ScheduleTypeLimits,
    Control Type,            !- Name
    0,                       !- Lower Limit Value
    4,                       !- Upper Limit Value
    DISCRETE;                !- Numeric Type

ScheduleTypeLimits,
    On/Off,                  !- Name
    0,                       !- Lower Limit Value
    1,                       !- Upper Limit Value
    DISCRETE;                !- Numeric Type


!-   ===========  ALL OBJECTS IN CLASS: SCHEDULE:COMPACT ===========

Schedule:Compact,
    Work efficiency,         !- Name
    Any Number,              !- Schedule Type Limits Name
    Through: 12/31,          !- Field 1
    For: AllDays,            !- Field 2
    Until: 24:00,            !- Field 3
    0;                       !- Field 4

! Schedule: On 24/7
Schedule:Compact,
    On 24/7,                 !- Name
    Any Number,              !- Schedule Type Limits Name
    Through: 12/31,          !- Field 1
    For: AllDays,            !- Field 2
    Until: 24:00,            !- Field 3
    1 ;                      !- Field 4

! Schedule: Off 24/7
Schedule:Compact,
    Off 24/7,                !- Name
    Any Number,              !- Schedule Type Limits Name
    Through: 12/31,          !- Field 1
    For: AllDays,            !- Field 2
    Until: 24:00,            !- Field 3
    0  ;                     !- Field 4

! Schedule: Auto VMC
Schedule:Compact,
    Auto VMC,                !- Name
    Any Number,              !- Schedule Type Limits Name
    Through: 12/31,          !- Field 1
    For: Weekdays WinterDesignDay SummerDesignDay,  !- Field 2
    Until: 07:00,            !- Field 3
    0  ,                     !- Field 4
    Until: 19:00,            !- Field 5
    0.8  ,                   !- Field 6
    Until: 24:00,            !- Field 7
    1  ,                     !- Field 8
    For: AllOtherDays,       !- Field 9
    Until: 24:00,            !- Field 10
    0  ;                     !- Field 11

! Schedule: Heating/Cooling setpoint schedule
Schedule:Compact,
    HeatingCooling setpoint schedule,  !- Name
    Temperature,             !- Schedule Type Limits Name
    Through: 12/31,          !- Field 1
    For AllDays,             !- Field 2
    Until 24:00,             !- Field 3
    20;                      !- Field 4

! Schedule: Control type schedule
Schedule:Compact,
    Control type setpoints schedule,  !- Name
    Any Number,              !- Schedule Type Limits Name
    Through: 12/31,          !- Field 1
    For: Weekdays WinterDesignDay SummerDesignDay,  !- Field 2
    Until: 07:00,            !- Field 3
    0,                       !- Field 4
    Until: 20:00,            !- Field 5
    3,                       !- Field 6
    Until: 24:00,            !- Field 7
    0,                       !- Field 8
    For: AllOtherDays,       !- Field 9
    Until: 24:00,            !- Field 10
    0;                       !- Field 11

! Schedule: Cooling setpoint schedule Etage:LOCALSERVEURS
Schedule:Compact,
    Cooling set point schedule Etage:LOCALSERVEURS,  !- Name
    Temperature,             !- Schedule Type Limits Name
    Through: 12/31,          !- Field 1
    For: AllDays,            !- Field 2
    Until: 24:00,            !- Field 3
    16;                      !- Field 4

! Schedule: Control type setpoints schedule Etage:LOCALSERVEURS
Schedule:Compact,
    Control type setpoints schedule Etage:LOCALSERVEURS,  !- Name
    Any Number,              !- Schedule Type Limits Name
    Through: 12/31,          !- Field 1
    For: AllDays,            !- Field 2
    Until: 24:00,            !- Field 3
    2 ;                      !- Field 4

! Schedule: DOAS supply air temperature: Always 18.00
Schedule:Compact,
    DOAS supply air temperature: Always 18.00,  !- Name
    Any Number,              !- Schedule Type Limits Name
    Through: 12/31,          !- Field 1
    For: AllDays,            !- Field 2
    Until: 24:00,            !- Field 3
    18 ;                     !- Field 4

! Schedule: Default Air Velocity for Comfort Calculations
Schedule:Compact,
    Default Air Velocity for Comfort Calculations,  !- Name
    Any Number,              !- Schedule Type Limits Name
    Through: 12/31,          !- Field 1
    For: AllDays,            !- Field 2
    Until: 24:00,            !- Field 3
    0.1370 ;                 !- Field 4

! Schedule: Cooling fraction schedule
Schedule:Compact,
    Cooling fraction schedule,  !- Name
    Fraction,                !- Schedule Type Limits Name
    Through: 12/31,          !- Field 1
    For: AllDays,            !- Field 2
    Until: 24:00,            !- Field 3
    1 ;                      !- Field 4

! Schedule: Heating fraction schedule
Schedule:Compact,
    Heating fraction schedule,  !- Name
    Fraction,                !- Schedule Type Limits Name
    Through: 12/31,          !- Field 1
    For: AllDays,            !- Field 2
    Until: 24:00,            !- Field 3
    1 ;                      !- Field 4

Schedule:Compact,
    Activity Schedule 4438,  !- Name
    Any Number,              !- Schedule Type Limits Name
    Through: 12/31,          !- Field 1
    For: AllDays,            !- Field 2
    Until: 24:00,            !- Field 3
    126;                     !- Field 4

Schedule:Compact,
    Clothing Schedule 4438,  !- Name
    Any Number,              !- Schedule Type Limits Name
    Through: 4/1,            !- Field 1
    For: AllDays,            !- Field 2
    Until: 24:00,            !- Field 3
    1,                       !- Field 4
    Through: 9/30,           !- Field 5
    For: AllDays,            !- Field 6
    Until: 24:00,            !- Field 7
    .5,                      !- Field 8
    Through: 12/31,          !- Field 9
    For: AllDays,            !- Field 10
    Until: 24:00,            !- Field 11
    1;                       !- Field 12

Schedule:Compact,
    Activity Schedule 4456,  !- Name
    Any Number,              !- Schedule Type Limits Name
    Through: 12/31,          !- Field 1
    For: AllDays,            !- Field 2
    Until: 24:00,            !- Field 3
    126;                     !- Field 4

Schedule:Compact,
    Clothing Schedule 4456,  !- Name
    Any Number,              !- Schedule Type Limits Name
    Through: 4/1,            !- Field 1
    For: AllDays,            !- Field 2
    Until: 24:00,            !- Field 3
    1,                       !- Field 4
    Through: 9/30,           !- Field 5
    For: AllDays,            !- Field 6
    Until: 24:00,            !- Field 7
    .5,                      !- Field 8
    Through: 12/31,          !- Field 9
    For: AllDays,            !- Field 10
    Until: 24:00,            !- Field 11
    1;                       !- Field 12

Schedule:Compact,
    Activity Schedule 4464,  !- Name
    Any Number,              !- Schedule Type Limits Name
    Through: 12/31,          !- Field 1
    For: AllDays,            !- Field 2
    Until: 24:00,            !- Field 3
    119.7;                   !- Field 4

Schedule:Compact,
    Clothing Schedule 4464,  !- Name
    Any Number,              !- Schedule Type Limits Name
    Through: 4/1,            !- Field 1
    For: AllDays,            !- Field 2
    Until: 24:00,            !- Field 3
    1,                       !- Field 4
    Through: 9/30,           !- Field 5
    For: AllDays,            !- Field 6
    Until: 24:00,            !- Field 7
    .5,                      !- Field 8
    Through: 12/31,          !- Field 9
    For: AllDays,            !- Field 10
    Until: 24:00,            !- Field 11
    1;                       !- Field 12

Schedule:Compact,
    Activity Schedule 4500,  !- Name
    Any Number,              !- Schedule Type Limits Name
    Through: 12/31,          !- Field 1
    For: AllDays,            !- Field 2
    Until: 24:00,            !- Field 3
    119.7;                   !- Field 4

Schedule:Compact,
    Clothing Schedule 4500,  !- Name